* PSpice Model Editor - Version 17.2.0
*$
.model Qx NPN 
*$
